Circuit: * C:\Users\PC\Desktop\MATERIAS FIUBA\Introduccion a los dispositivos electronicos\tp3_amp\spice\Draft1.asc

.OP point found by inspection.

Date: Sat Jun  8 18:07:44 2024
Total elapsed time: 0.836 seconds.

tnom = 27
temp = 27
method = modified trap
totiter = 95316
traniter = 95316
tranpoints = 47659
accept = 32251
rejected = 15408
matrix size = 4
fillins = 0
solver = Normal
Avg thread counts: 1.0/1.0/1.0/1.0
Matrix Compiler1:       8 opcodes  0.1/[0.1]/0.1
Matrix Compiler2: 236 bytes object code size  0.1/0.1/[0.1]

