Circuit: * C:\Users\PC\Desktop\MATERIAS FIUBA\Introduccion a los dispositivos electronicos\tp3_amp\spice\prubas.asc

WARNING: Node NC_01 is floating.

WARNING: Less than two connections to node nc_01.  This node is used by c1.
WARNING: Less than two connections to node n004.  This node is used by r2.
Direct Newton iteration for .op point succeeded.

Date: Tue Jun 11 15:52:11 2024
Total elapsed time: 0.257 seconds.

tnom = 27
temp = 27
method = modified trap
totiter = 104955
traniter = 104951
tranpoints = 40408
accept = 24319
rejected = 16089
matrix size = 17
fillins = 0
solver = Normal
Avg thread counts: 1.0/1.0/1.0/1.0
Matrix Compiler1:      34 opcodes  0.3/[0.2]/0.2
Matrix Compiler2: 1.13 KB object code size  0.2/0.3/[0.2]

