Circuit: * C:\Users\PC\Desktop\MATERIAS FIUBA\Introduccion a los dispositivos electronicos\tp3_amp\spice\pruebas_amps.asc

WARNING: Node VO3 is floating.

WARNING: Less than two connections to node vo3.  This node is used by c5.
WARNING: Less than two connections to node nc_01.  This node is used by r12.
Direct Newton iteration for .op point succeeded.

Date: Wed Jun 12 17:24:52 2024
Total elapsed time: 0.365 seconds.

tnom = 27
temp = 27
method = modified trap
totiter = 103952
traniter = 103944
tranpoints = 40410
accept = 24319
rejected = 16091
matrix size = 23
fillins = 0
solver = Normal
Avg thread counts: 1.0/1.0/1.0/1.0
Matrix Compiler1: 726 bytes object code size  0.3/0.2/[0.2]
Matrix Compiler2: 1.50 KB object code size  0.5/0.3/[0.2]

