Circuit: * C:\Users\MBRIS\Desktop\Git\tp3_amp\spice\pruebas_amps.asc

WARNING: Node N006 is floating.

WARNING: Less than two connections to node n006.  This node is used by c7.
WARNING: Less than two connections to node nc_01.  This node is used by r18.
Direct Newton iteration for .op point succeeded.

Date: Sun Jun 16 11:38:05 2024
Total elapsed time: 2.623 seconds.

tnom = 27
temp = 27
method = modified trap
totiter = 346541
traniter = 346536
tranpoints = 114431
accept = 72321
rejected = 42110
matrix size = 64
fillins = 0
solver = Normal
Avg thread counts: 1.0/1.0/1.0/1.0
Matrix Compiler1: 2.45 KB object code size  0.7/0.5/[0.4]
Matrix Compiler2: 4.37 KB object code size  0.6/0.7/[0.4]

