Circuit: * C:\Users\MBRIS\Desktop\Git\tp3_amp\spice\sim_mos.asc


Date: Thu Jun  6 13:42:06 2024
Total elapsed time: 0.064 seconds.

tnom = 27
temp = 27
method = trap
totiter = 366
traniter = 0
tranpoints = 0
accept = 0
rejected = 0
matrix size = 8
fillins = 0
solver = Normal
Avg thread counts: 1.2/0.0/1.3/1.2
Matrix Compiler1:      19 opcodes  0.1/[0.1]/0.2
Matrix Compiler2: 554 bytes object code size  0.1/0.1/[0.1]

