Circuit: * C:\Users\PC\Desktop\MATERIAS FIUBA\Introduccion a los dispositivos electronicos\tp3_amp\spice\sim_mos.asc


Date: Sat Jun  8 12:07:40 2024
Total elapsed time: 0.069 seconds.

tnom = 27
temp = 27
method = trap
totiter = 366
traniter = 0
tranpoints = 0
accept = 0
rejected = 0
matrix size = 8
fillins = 0
solver = Normal
Avg thread counts: 2.8/0.0/4.6/2.8
Matrix Compiler1:      19 opcodes  0.2/[0.2]/0.2
Matrix Compiler2: 554 bytes object code size  0.1/0.3/[0.1]

